<?xml version="1.0" encoding="UTF-8"?>
<net version="1.16" junctionCornerDetail="5" limitTurnSpeed="5.50" xmlns:xsi="http://www.w3.org/2001/XMLSchema-instance" xsi:noNamespaceSchemaLocation="http://sumo.dlr.de/xsd/net_file.xsd">

    <location netOffset="0.00,0.00" convBoundary="-300.00,-300.00,300.00,300.00" origBoundary="-300.00,-300.00,300.00,300.00"/>

    <!-- Junction (Intersection) -->
    <junction id="center" type="traffic_light" x="0.00" y="0.00" incLanes="north_in_0 north_in_1 south_in_0 south_in_1 east_in_0 east_in_1 west_in_0 west_in_1" intLanes=":center_0_0 :center_1_0 :center_2_0 :center_3_0 :center_4_0 :center_5_0 :center_6_0 :center_7_0" shape="-4.80,4.80 4.80,4.80 4.80,-4.80 -4.80,-4.80"/>
    
    <!-- External Junctions -->
    <junction id="north_start" type="dead_end" x="0.00" y="300.00" incLanes="" intLanes="" shape="-1.60,300.00 1.60,300.00"/>
    <junction id="south_start" type="dead_end" x="0.00" y="-300.00" incLanes="" intLanes="" shape="1.60,-300.00 -1.60,-300.00"/>
    <junction id="east_start" type="dead_end" x="300.00" y="0.00" incLanes="" intLanes="" shape="300.00,1.60 300.00,-1.60"/>
    <junction id="west_start" type="dead_end" x="-300.00" y="0.00" incLanes="" intLanes="" shape="-300.00,-1.60 -300.00,1.60"/>
    
    <junction id="north_end" type="dead_end" x="0.00" y="300.00" incLanes="north_out_0 north_out_1" intLanes="" shape="1.60,300.00 -1.60,300.00"/>
    <junction id="south_end" type="dead_end" x="0.00" y="-300.00" incLanes="south_out_0 south_out_1" intLanes="" shape="-1.60,-300.00 1.60,-300.00"/>
    <junction id="east_end" type="dead_end" x="300.00" y="0.00" incLanes="east_out_0 east_out_1" intLanes="" shape="300.00,-1.60 300.00,1.60"/>
    <junction id="west_end" type="dead_end" x="-300.00" y="0.00" incLanes="west_out_0 west_out_1" intLanes="" shape="-300.00,1.60 -300.00,-1.60"/>

    <!-- Incoming Edges -->
    <edge id="north_in" from="north_start" to="center" priority="1" numLanes="2">
        <lane id="north_in_0" index="0" speed="13.89" length="300.00" shape="-1.60,300.00 -1.60,4.80"/>
        <lane id="north_in_1" index="1" speed="13.89" length="300.00" shape="1.60,300.00 1.60,4.80"/>
    </edge>

    <edge id="south_in" from="south_start" to="center" priority="1" numLanes="2">
        <lane id="south_in_0" index="0" speed="13.89" length="300.00" shape="1.60,-300.00 1.60,-4.80"/>
        <lane id="south_in_1" index="1" speed="13.89" length="300.00" shape="-1.60,-300.00 -1.60,-4.80"/>
    </edge>

    <edge id="east_in" from="east_start" to="center" priority="1" numLanes="2">
        <lane id="east_in_0" index="0" speed="13.89" length="300.00" shape="300.00,1.60 4.80,1.60"/>
        <lane id="east_in_1" index="1" speed="13.89" length="300.00" shape="300.00,-1.60 4.80,-1.60"/>
    </edge>

    <edge id="west_in" from="west_start" to="center" priority="1" numLanes="2">
        <lane id="west_in_0" index="0" speed="13.89" length="300.00" shape="-300.00,-1.60 -4.80,-1.60"/>
        <lane id="west_in_1" index="1" speed="13.89" length="300.00" shape="-300.00,1.60 -4.80,1.60"/>
    </edge>

    <!-- Outgoing Edges -->
    <edge id="north_out" from="center" to="north_end" priority="1" numLanes="2">
        <lane id="north_out_0" index="0" speed="13.89" length="300.00" shape="1.60,4.80 1.60,300.00"/>
        <lane id="north_out_1" index="1" speed="13.89" length="300.00" shape="-1.60,4.80 -1.60,300.00"/>
    </edge>

    <edge id="south_out" from="center" to="south_end" priority="1" numLanes="2">
        <lane id="south_out_0" index="0" speed="13.89" length="300.00" shape="-1.60,-4.80 -1.60,-300.00"/>
        <lane id="south_out_1" index="1" speed="13.89" length="300.00" shape="1.60,-4.80 1.60,-300.00"/>
    </edge>

    <edge id="east_out" from="center" to="east_end" priority="1" numLanes="2">
        <lane id="east_out_0" index="0" speed="13.89" length="300.00" shape="4.80,-1.60 300.00,-1.60"/>
        <lane id="east_out_1" index="1" speed="13.89" length="300.00" shape="4.80,1.60 300.00,1.60"/>
    </edge>

    <edge id="west_out" from="center" to="west_end" priority="1" numLanes="2">
        <lane id="west_out_0" index="0" speed="13.89" length="300.00" shape="-4.80,1.60 -300.00,1.60"/>
        <lane id="west_out_1" index="1" speed="13.89" length="300.00" shape="-4.80,-1.60 -300.00,-1.60"/>
    </edge>

</net>