<?xml version="1.0" encoding="UTF-8"?>
<additionalFile xmlns:xsi="http://www.w3.org/2001/XMLSchema-instance" xsi:noNamespaceSchemaLocation="http://sumo.dlr.de/xsd/additional_file.xsd">
    
    <tlLogic id="center" type="static" programID="0" offset="0">
        <!-- Phase 0: North-South Green, East-West Red (30 seconds) -->
        <phase duration="30" state="GGrrGGrr"/>
        <!-- Phase 1: North-South Yellow, East-West Red (3 seconds) -->
        <phase duration="3" state="yyrryyRR"/>
        <!-- Phase 2: North-South Red, East-West Green (30 seconds) -->
        <phase duration="30" state="rrGGrrGG"/>
        <!-- Phase 3: North-South Red, East-West Yellow (3 seconds) -->
        <phase duration="3" state="rryyrryy"/>
    </tlLogic>
    
</additionalFile>